<?xml version="1.0" encoding="UTF-8"?>

<!-- generated on 2024-10-08 16:51:09 by Eclipse SUMO jtrrouter Version 1.20.0
<configuration xmlns:xsi="http://www.w3.org/2001/XMLSchema-instance" xsi:noNamespaceSchemaLocation="http://sumo.dlr.de/xsd/jtrrouterConfiguration.xsd">

    <input>
        <net-file value="suthartonnetwork.net.xml"/>
        <route-files value="flows.tmp.xml"/>
        <turn-ratio-files value="turn_counts.xml"/>
    </input>

    <output>
        <output-file value="sutharton_routes.rou.xml"/>
    </output>

    <processing>
        <accept-all-destinations value="true"/>
        <sources-are-sinks value="true"/>
    </processing>

</configuration>
-->

<routes xmlns:xsi="http://www.w3.org/2001/XMLSchema-instance" xsi:noNamespaceSchemaLocation="http://sumo.dlr.de/xsd/routes_file.xsd">
    <vehicle id="295789573.0" depart="0.00">
        <route edges="295789573 751479821#0 929596688 -929596689#0 765852911#0 765852911#1 765852911#2 765852911#3 -765852911#3 -765852911#2 -765852911#1 -765852911#0 -765852912 765852912 929596689#0 -929596688 751479821#1 151682713 138367146"/>
    </vehicle>
    <vehicle id="747478914#5.0" depart="0.00">
        <route edges="747478914#5 1218271275 25715384#0 25715384#1 32041202"/>
    </vehicle>
    <vehicle id="747478914#5.1" depart="0.04">
        <route edges="747478914#5 1218271275 25715384#0 25715384#1 32041202"/>
    </vehicle>
    <vehicle id="295789573.1" depart="0.04">
        <route edges="295789573 751479821#0 751479821#1 154773966#0 154773966#1 154773966#2 154773966#3 649819510 -649819510 154773966#4 154773966#5 680334440 -680334440 154773966#6 154773966#7 -1046912343 -730920873 -707628055 156261352#0 156261352#1 -156241674#5 156241470 -156241502 156241608#1 -156241608#1 156241502 -156241470 156241674#5 40005694 1024938014 1024938013#0 1024938013#1 1136400026 177961597#0 177961597#1 177961597#2 -546023201#1 -546023201#0 -41414711 41414711 546023201#0 546023201#1 747478915#0 747478915#1"/>
    </vehicle>
    <vehicle id="747478914#5.2" depart="0.07">
        <route edges="747478914#5 1218271275 25715384#0 25715384#1 32041202"/>
    </vehicle>
    <vehicle id="295789573.2" depart="0.08">
        <route edges="295789573 751479821#0 751479821#1 151682713 138367146"/>
    </vehicle>
    <vehicle id="747478914#5.3" depart="0.11">
        <route edges="747478914#5 1218271275 25715384#0 25715384#1 32041202"/>
    </vehicle>
    <vehicle id="295789573.3" depart="0.12">
        <route edges="295789573 751479821#0 929596688 929596689#1 -929596689#1 -929596689#0 765852911#0 765852911#1 765852911#2 765852911#3 -765852911#3 -765852911#2 -765852911#1 -765852911#0 929596689#0 -929596688 751479821#1 154773966#0 154773966#1 154773966#2 154773966#3 154773966#4 154773966#5 680334440 -680334440 154773966#6 154773966#7 -1046912343 -730920873 -707628055 -680475729#5 680475729#5 156261352#0 156261352#1 -156241674#5 156241470 -156241502 156241608#1 -156241608#1 -156241608#0 156241674#2 156241674#3 156241674#4 -156241674#4 -156241674#3 -156241674#2 156241608#0 156241502 -156241470 156241674#5 40005694 1024938014 1024938013#0 1024938013#1 1136400026 177961597#0 177961597#1 177961597#2 -546023201#1 -546023201#0 546023201#0 546023201#1 747478915#0 747478915#1"/>
    </vehicle>
    <vehicle id="747478914#5.4" depart="0.15">
        <route edges="747478914#5 1218271275 29503481#0 29503481#1 39727771#0 693779344 39727774#2 -39727774#2 -39727774#1 39727775 -1018494960#1 720154161 -720154161 1018494960#1 -39727775 -39727774#0 29503481#4 29503481#5"/>
    </vehicle>
    <vehicle id="295789573.4" depart="0.16">
        <route edges="295789573 751479821#0 929596688 929596689#1 -929596689#1 -929596689#0 929596689#0 -929596688 751479821#1 154773966#0 154773966#1 154773966#2 154773966#3 154773966#4 154773966#5 680334440 -680334440 154773966#6 1258915852 -1258915852 154773966#7 -1046912343 -730920873 -707628055 156261352#0 156261352#1 40005694 1024938014 763159028 177961609#0 177961609#1 1177563656 1177563654"/>
    </vehicle>
    <vehicle id="747478914#5.5" depart="0.19">
        <route edges="747478914#5 1218271275 154774046"/>
    </vehicle>
    <vehicle id="295789573.5" depart="0.21">
        <route edges="295789573 751479821#0 751479821#1 154773966#0 154773966#1 154773966#2 154773966#3 154773966#4 154773966#5 154773966#6 1258915852 -1258915852 154773966#7 -1046912343 -730920873 -707628055 306379729#0 306379729#1 306379729#2 306379729#3 306379729#4 -306379729#4 -306379729#3 -306379729#2 -306379729#1 -306379729#0 -680475729#5 -680475729#4 -680475729#3 -680475729#2 -680475729#1 -680475729#0 680475729#0 680475729#1 680475729#2 680475729#3 680475729#4 680475729#5 707628055 730920873 1046912343 730920874#0 730920874#1 -680369587 680369587 -730920874#1 -730920874#0"/>
    </vehicle>
    <vehicle id="747478914#5.6" depart="0.22">
        <route edges="747478914#5 1218271275 25715384#0 25715384#1 32041202"/>
    </vehicle>
    <vehicle id="295789573.6" depart="0.25">
        <route edges="295789573 751479821#0 929596688 -929596689#0 765852911#0 765852911#1 765852911#2 765852911#3 -765852911#3 -765852911#2 -765852911#1 -765852911#0 -765852912 765852912 929596689#0 -929596688 751479821#1 154773966#0 154773966#1 154773966#2 154773966#3 154773966#4 154773966#5 154773966#6 1258915852 -1258915852 154773966#7 -1046912343 -730920873 -707628055 156261352#0 156261352#1 -156241674#5 -156241674#4 -156241674#3 156241674#3 156241674#4 156241470 -156241502 -156241608#0 -156241674#1 -156241674#0 156241674#0 -964200243 964200243 156241674#1 156241608#0 156241608#1 177961609#1 1177563656 1177563654"/>
    </vehicle>
    <vehicle id="747478914#5.7" depart="0.26">
        <route edges="747478914#5 1218271275 25715384#0 25715384#1 32041202"/>
    </vehicle>
    <vehicle id="295789573.7" depart="0.29">
        <route edges="295789573 751479821#0 929596688 929596689#1 -929596689#1 -929596688 751479821#1 154773966#0 154773966#1 154773966#2 154773966#3 649819510 -649819510 154773966#4 154773966#5 680334440 -680334440 154773966#6 154773966#7 -1046912343 -730920873 -707628055 306379729#0 306379729#1 306379729#2 306379729#3 306379729#4 -306379729#4 306379730#0 156241515#0 156241515#1 680475729#5 -680475729#5 -680475729#4 156241660#0 156241660#1 156241660#2 156241660#3 156241674#3 156241674#4 -156241674#4 -156241674#3 -156241674#2 156241674#2"/>
    </vehicle>
    <vehicle id="747478914#5.8" depart="0.30">
        <route edges="747478914#5 1218271275 29503481#0 29503481#1 29503481#2 29503481#3 29503481#4 39727776 720154160 -720154160 1018494960#0 720154161 -720154161 -1018494960#0 -39727776 29503481#5"/>
    </vehicle>
    <vehicle id="295789573.8" depart="0.33">
        <route edges="295789573 751479821#0 929596688 929596689#1 -929596689#1 -929596688 751479821#1 154773966#0 154773966#1 154773966#2 154773966#3 154773966#4 154773966#5 154773966#6 154773966#7 730920874#0 730920874#1 730920874#2 730920874#3 730920874#4 730920874#5 730920874#6 730920874#7 852320929 -852320929 730920874#8 730920874#9 730920874#10 -730920874#10 -730920874#9 -730920874#8 -730920874#7 -730920874#6 -730920874#5 -730920874#4 -730920874#3 -730920874#2 -730920874#1 -730920874#0 -1046912343 -730920873 -707628055 707628055 730920873 1046912343"/>
    </vehicle>
    <vehicle id="747478914#5.9" depart="0.33">
        <route edges="747478914#5 1218271275 154774046"/>
    </vehicle>
    <vehicle id="295789573.9" depart="0.37">
        <route edges="295789573 751479821#0 929596688 -929596689#0 929596689#0 929596689#1 -929596689#1 -929596688 751479821#1 154773966#0 154773966#1 154773966#2 154773966#3 154773966#4 154773966#5 680334440 -680334440 154773966#6 1258915852 -1258915852 154773966#7 -1046912343 -730920873 -707628055 306379729#0 306379729#1 306379729#2 306379729#3 306379730#0 306379730#1 306379730#2 306379730#3 306379730#4 306379730#5 -306379730#5 -306379730#4 -306379730#3 -306379730#2 -306379730#1 156241515#0 156241515#1 -680475729#4 -680475729#3 -680475729#2 -680475729#1 -680475729#0 29503520 -1235464237#0 -1235466544 1235466544 1235464237#0 1235464237#1 1235464237#2 491885330#1 -491885330#1 -491885330#0 306379728 -1136754384#1 491885329 -491885329 1136754384#1 1136754384#2 -1136754384#2 -306379728 1258912429 98792749"/>
    </vehicle>
    <vehicle id="747478914#5.10" depart="0.37">
        <route edges="747478914#5 1218271275 29503481#0 29503481#1 39727771#0 -39727771#0 29503481#2 29503481#3 39727774#0 -39727774#0 29503481#4 29503481#5"/>
    </vehicle>
    <vehicle id="747478914#5.11" depart="0.41">
        <route edges="747478914#5 1218271275 29503481#0 29503481#1 39727771#0 693779344 -693779344 39727771#1 -39727771#1 -39727771#0 29503481#2 29503481#3 29503481#4 29503481#5"/>
    </vehicle>
    <vehicle id="295789573.10" depart="0.41">
        <route edges="295789573 751479821#0 929596688 -929596689#0 -765852912 765852912 765852911#0 765852911#1 765852911#2 765852911#3 -765852911#3 -765852911#2 -765852911#1 -765852911#0 929596689#0 -929596688 751479821#1 151682713 138367146"/>
    </vehicle>
    <vehicle id="747478914#5.12" depart="0.44">
        <route edges="747478914#5 1218271275 25715384#0 25715384#1 32041202"/>
    </vehicle>
    <vehicle id="295789573.11" depart="0.45">
        <route edges="295789573 751479821#0 751479821#1 154773966#0 154773966#1 154773966#2 154773966#3 649819510 -649819510 154773966#4 154773966#5 680334440 -680334440 154773966#6 154773966#7 -1046912343 -730920873 -707628055 -680475729#5 -680475729#4 -680475729#3 -680475729#2 680475729#2 680475729#3 156241660#0 156241660#1 156241660#2 156241660#3 -156241674#2 -156241674#1 -964200243 964200243 156241674#1 156241608#0 156241502 -156241470 156241674#5 -156241674#5 -156241674#4 -156241674#3 156241674#3 156241674#4 156241470 -156241502 156241608#1 177961609#1 1177563656 1177563654"/>
    </vehicle>
    <vehicle id="747478914#5.13" depart="0.48">
        <route edges="747478914#5 1218271275 25715384#0 25715384#1 32041202"/>
    </vehicle>
    <vehicle id="295789573.12" depart="0.49">
        <route edges="295789573 751479821#0 929596688 929596689#1 -929596689#1 -929596689#0 765852911#0 765852911#1 765852911#2 765852911#3 -765852911#3 -765852911#2 -765852911#1 -765852911#0 929596689#0 -929596688 751479821#1 154773966#0 154773966#1 154773966#2 154773966#3 649819510 -649819510 154773966#4 154773966#5 154773966#6 1258915852 -1258915852 154773966#7 -1046912343 -730920873 -707628055 156261352#0 156261352#1 -156241674#5 156241470 -156241502 -156241608#0 156241674#2 156241674#3 156241674#4 156241674#5 40005694 1024938014 763159028 177961609#0 -156241608#1 156241502 -156241470 -156241674#4 -156241674#3 -156241674#2 -156241674#1 -156241674#0 156241674#0 -964200243 964200243 156241674#1 156241608#0 156241608#1 177961609#1 1177563656 1177563654"/>
    </vehicle>
    <vehicle id="747478914#5.14" depart="0.52">
        <route edges="747478914#5 1218271275 154774046"/>
    </vehicle>
    <vehicle id="295789573.13" depart="0.53">
        <route edges="295789573 751479821#0 929596688 929596689#1 -929596689#1 -929596689#0 -765852912 765852912 765852911#0 765852911#1 765852911#2 765852911#3 -765852911#3 -765852911#2 -765852911#1 -765852911#0 929596689#0 -929596688 751479821#1 154773966#0 154773966#1 154773966#2 154773966#3 154773966#4 154773966#5 154773966#6 154773966#7 -1046912343 -730920873 -707628055 -680475729#5 680475729#5 306379729#0 306379729#1 306379729#2 306379729#3 306379729#4 -306379729#4 306379730#0 156241515#0 156241515#1 -680475729#4 -680475729#3 -680475729#2 -680475729#1 -680475729#0 -1136754384#3 -1136754384#2 -306379728 1258912429 -491885329 -1136754384#0"/>
    </vehicle>
    <vehicle id="747478914#5.15" depart="0.56">
        <route edges="747478914#5 1218271275 25715384#0 25715384#1 32041202"/>
    </vehicle>
    <vehicle id="295789573.14" depart="0.57">
        <route edges="295789573 751479821#0 929596688 -929596688 751479821#1 154773966#0 154773966#1 154773966#2 154773966#3 154773966#4 154773966#5 154773966#6 154773966#7 730920874#0 730920874#1 -680369587 680369587 730920874#2 730920874#3 730920874#4 730920874#5 730920874#6 730920874#7 852320929 -852320929 -730920874#7 -730920874#6 -730920874#5 -730920874#4 976736696 -976736696 -730920874#3 -730920874#2 -730920874#1 -730920874#0 -1046912343 -730920873 -707628055 306379729#0 306379729#1 306379729#2 306379729#3 306379730#0 156241515#0 156241515#1 -680475729#4 -680475729#3 -680475729#2 -680475729#1 -680475729#0 29503520 1235464237#1 1235464237#2 491885330#1 -491885330#1 -491885330#0 1258912429 -491885329 -1136754384#0"/>
    </vehicle>
    <vehicle id="747478914#5.16" depart="0.59">
        <route edges="747478914#5 1218271275 25715384#0 25715384#1 32041202"/>
    </vehicle>
    <vehicle id="295789573.15" depart="0.62">
        <route edges="295789573 751479821#0 751479821#1 151682713 138367146"/>
    </vehicle>
    <vehicle id="747478914#5.17" depart="0.63">
        <route edges="747478914#5 1218271275 25715384#0 25715384#1 32041202"/>
    </vehicle>
    <vehicle id="295789573.16" depart="0.66">
        <route edges="295789573 751479821#0 929596688 929596689#1 -929596689#1 -929596689#0 765852911#0 765852911#1 765852911#2 765852911#3 -765852911#3 -765852911#2 -765852911#1 -765852911#0 -765852912 765852912 929596689#0 -929596688 751479821#1 154773966#0 154773966#1 154773966#2 154773966#3 649819510 -649819510 154773966#4 154773966#5 680334440 -680334440 154773966#6 154773966#7 730920874#0 730920874#1 -680369587 680369587 -730920874#1 -730920874#0 -1046912343 -730920873 -707628055 -680475729#5 680475729#5 156261352#0 596271745 -596271745 156261352#1 40005694 1024938014 1024938013#0 1024938013#1 1136400026 177961597#0 177961597#1 177961597#2 747478915#0 747478915#1"/>
    </vehicle>
    <vehicle id="747478914#5.18" depart="0.67">
        <route edges="747478914#5 1218271275 25715384#0 25715384#1 32041202"/>
    </vehicle>
    <vehicle id="295789573.17" depart="0.70">
        <route edges="295789573 751479821#0 751479821#1 151682713 138367146"/>
    </vehicle>
    <vehicle id="747478914#5.19" depart="0.70">
        <route edges="747478914#5 1218271275 25715384#0 25715384#1 32041202"/>
    </vehicle>
    <vehicle id="295789573.18" depart="0.74">
        <route edges="295789573 751479821#0 751479821#1 154773966#0 154773966#1 154773966#2 154773966#3 154773966#4 154773966#5 154773966#6 1258915852 -1258915852 154773966#7 730920874#0 730920874#1 -680369587 680369587 -730920874#1 -730920874#0 -1046912343 -730920873 -707628055 306379729#0 306379729#1 306379729#2 306379729#3 306379729#4 -306379729#4 -306379729#3 -306379729#2 -306379729#1 -306379729#0 156261352#0 156261352#1 40005694 1024938014 763159028 177961609#0 177961609#1 1177563656 1177563654"/>
    </vehicle>
    <vehicle id="747478914#5.20" depart="0.74">
        <route edges="747478914#5 1218271275 25715384#0 25715384#1 32041202"/>
    </vehicle>
    <vehicle id="747478914#5.21" depart="0.78">
        <route edges="747478914#5 1218271275 29503481#0 29503481#1 29503481#2 29503481#3 39727774#0 39727775 39727789 -39727789 -1018494960#1 720154161 -720154161 1018494960#1 -39727775 -39727774#0 29503481#4 39727776 720154160 -720154160 -39727776 29503481#5"/>
    </vehicle>
    <vehicle id="295789573.19" depart="0.78">
        <route edges="295789573 751479821#0 751479821#1 154773966#0 154773966#1 154773966#2 154773966#3 649819510 -649819510 154773966#4 154773966#5 154773966#6 154773966#7 730920874#0 730920874#1 -680369587 680369587 730920874#2 730920874#3 730920874#4 730920874#5 730920874#6 730920874#7 -730920874#7 -730920874#6 -730920874#5 -730920874#4 -730920874#3 -730920874#2 -730920874#1 -730920874#0 -1046912343 -730920873 -707628055 707628055 730920873 1046912343"/>
    </vehicle>
    <vehicle id="747478914#5.22" depart="0.81">
        <route edges="747478914#5 1218271275 154774046"/>
    </vehicle>
    <vehicle id="295789573.20" depart="0.82">
        <route edges="295789573 751479821#0 929596688 -929596689#0 -765852912 765852912 929596689#0 929596689#1 -929596689#1 -929596688 751479821#1 154773966#0 154773966#1 154773966#2 154773966#3 154773966#4 154773966#5 680334440 -680334440 154773966#6 1258915852 -1258915852 154773966#7 730920874#0 730920874#1 730920874#2 730920874#3 976736696 -976736696 730920874#4 730920874#5 730920874#6 730920874#7 852320929 -852320929 730920874#8 730920874#9 730920874#10 -730920874#10 -730920874#9 -730920874#8 -730920874#7 -730920874#6 -730920874#5 -730920874#4 -730920874#3 -730920874#2 -730920874#1 -730920874#0 -1046912343 -730920873 -707628055 156261352#0 596271745 -596271745 156261352#1 -156241674#5 156241674#5 40005694 1024938014 763159028 177961609#0 177961609#1 1177563656 1177563654"/>
    </vehicle>
    <vehicle id="747478914#5.23" depart="0.85">
        <route edges="747478914#5 1218271275 25715384#0 25715384#1 32041202"/>
    </vehicle>
    <vehicle id="295789573.21" depart="0.86">
        <route edges="295789573 751479821#0 751479821#1 154773966#0 154773966#1 154773966#2 154773966#3 154773966#4 154773966#5 154773966#6 154773966#7 730920874#0 730920874#1 -730920874#1 -730920874#0 -1046912343 -730920873 -707628055 -680475729#5 -680475729#4 -680475729#3 -680475729#2 -680475729#1 -680475729#0 29503520 -1235464237#0 -1235466544 1235466544 1235464237#0 1235464237#1 1235464237#2 491885330#1 -491885330#1 -491885330#0 306379728 -1136754384#1 -1136754384#0"/>
    </vehicle>
    <vehicle id="747478914#5.24" depart="0.89">
        <route edges="747478914#5 1218271275 154774046"/>
    </vehicle>
    <vehicle id="295789573.22" depart="0.90">
        <route edges="295789573 751479821#0 751479821#1 154773966#0 154773966#1 154773966#2 154773966#3 649819510 -649819510 154773966#4 154773966#5 154773966#6 1258915852 -1258915852 154773966#7 730920874#0 730920874#1 -680369587 680369587 730920874#2 730920874#3 976736696 -976736696 730920874#4 730920874#5 730920874#6 730920874#7 852320929 -852320929 730920874#8 730920874#9 730920874#10 -730920874#10 -730920874#9 -730920874#8 -730920874#7 -730920874#6 -730920874#5 -730920874#4 -730920874#3 -730920874#2 -730920874#1 -730920874#0 -1046912343 -730920873 -707628055 -680475729#5 -680475729#4 -680475729#3 -680475729#2 -680475729#1 -680475729#0 680475729#0 680475729#1 680475729#2 680475729#3 156241660#0 156241660#1 156241660#2 156241660#3 -156241674#2 -156241674#1 -156241674#0 707628056#1 1177563656 1177563654"/>
    </vehicle>
    <vehicle id="747478914#5.25" depart="0.93">
        <route edges="747478914#5 1218271275 29503481#0 29503481#1 39727771#0 39727771#1 -39727771#1 -39727771#0 29503481#2 29503481#3 39727774#0 39727774#1 -39727774#1 39727775 -1018494960#1 720154161 -720154161 -1018494960#0 720154160 -720154160 1018494960#0 1018494960#1 -39727775 -39727774#0 29503481#4 39727776 -39727776 29503481#5"/>
    </vehicle>
    <vehicle id="295789573.23" depart="0.94">
        <route edges="295789573 751479821#0 751479821#1 154773966#0 154773966#1 154773966#2 154773966#3 154773966#4 154773966#5 154773966#6 1258915852 -1258915852 154773966#7 -1046912343 -730920873 -707628055 306379729#0 306379729#1 306379729#2 306379729#3 -306379729#3 -306379729#2 -306379729#1 -306379729#0 -680475729#5 680475729#5 707628055 730920873 1046912343 730920874#0 730920874#1 730920874#2 730920874#3 -730920874#3 -730920874#2 -730920874#1 -730920874#0"/>
    </vehicle>
    <vehicle id="747478914#5.26" depart="0.96">
        <route edges="747478914#5 1218271275 25715384#0 25715384#1 32041202"/>
    </vehicle>
    <vehicle id="295789573.24" depart="0.98">
        <route edges="295789573 751479821#0 751479821#1 154773966#0 154773966#1 154773966#2 154773966#3 154773966#4 154773966#5 154773966#6 1258915852 -1258915852 154773966#7 730920874#0 730920874#1 -680369587 680369587 -730920874#1 -730920874#0 -1046912343 -730920873 -707628055 707628055 730920873 1046912343"/>
    </vehicle>
    <vehicle id="747478914#5.27" depart="1.00">
        <route edges="747478914#5 1218271275 154774046"/>
    </vehicle>
    <vehicle id="295789573.25" depart="1.03">
        <route edges="295789573 751479821#0 751479821#1 154773966#0 154773966#1 154773966#2 154773966#3 154773966#4 154773966#5 154773966#6 154773966#7 -1046912343 -730920873 -707628055 306379729#0 306379729#1 306379729#2 306379729#3 306379730#0 156241515#0 156241515#1 680475729#5 156261352#0 596271745 -596271745 156261352#1 40005694 1024938014 1024938013#0 1024938013#1 1136400026 177961597#0 177961597#1 177961597#2 747478915#0 747478915#1"/>
    </vehicle>
    <vehicle id="747478914#5.28" depart="1.04">
        <route edges="747478914#5 1218271275 29503481#0 29503481#1 39727771#0 693779344 39727774#2 -39727774#2 -39727774#1 39727775 39727789 -39727789 -39727775 39727774#1 -693779344 39727771#1 -39727771#1 -39727771#0 29503481#2 29503481#3 29503481#4 39727776 1018494960#0 720154161 -720154161 1018494960#1 -1018494960#1 -1018494960#0 720154160 -720154160 -39727776 29503481#5"/>
    </vehicle>
    <vehicle id="295789573.26" depart="1.07">
        <route edges="295789573 751479821#0 929596688 -929596689#0 765852911#0 765852911#1 765852911#2 765852911#3 -765852911#3 -765852911#2 -765852911#1 -765852911#0 929596689#0 -929596688 751479821#1 154773966#0 154773966#1 154773966#2 154773966#3 154773966#4 154773966#5 154773966#6 1258915852 -1258915852 154773966#7 730920874#0 730920874#1 -730920874#1 -730920874#0 -1046912343 -730920873 -707628055 -680475729#5 680475729#5 707628055 730920873 1046912343"/>
    </vehicle>
    <vehicle id="747478914#5.29" depart="1.07">
        <route edges="747478914#5 1218271275 29503481#0 29503481#1 29503481#2 29503481#3 29503481#4 39727776 1018494960#0 1018494960#1 -39727775 39727775 39727789 -39727789 -1018494960#1 -1018494960#0 720154160 -720154160 -39727776 29503481#5"/>
    </vehicle>
    <vehicle id="295789573.27" depart="1.11">
        <route edges="295789573 751479821#0 929596688 929596689#1 -929596689#1 -929596688 751479821#1 151682713 138367146"/>
    </vehicle>
    <vehicle id="747478914#5.30" depart="1.11">
        <route edges="747478914#5 1218271275 25715384#0 25715384#1 32041202"/>
    </vehicle>
    <vehicle id="747478914#5.31" depart="1.15">
        <route edges="747478914#5 1218271275 154774046"/>
    </vehicle>
    <vehicle id="295789573.28" depart="1.15">
        <route edges="295789573 751479821#0 751479821#1 154773966#0 154773966#1 154773966#2 154773966#3 649819510 -649819510 154773966#4 154773966#5 680334440 -680334440 154773966#6 154773966#7 -1046912343 -730920873 -707628055 -680475729#5 680475729#5 306379729#0 306379729#1 306379729#2 306379729#3 306379729#4 -306379729#4 306379730#0 306379730#1 306379730#2 306379730#3 306379730#4 306379730#5 1235466544 1235464237#0 1235464237#1 1235464237#2 491885330#1 -491885330#1 -1235464237#2 -1235464237#1 -1235464237#0 -1235466544 29503521#0 29503521#1 29503521#2 680475729#2 680475729#3 156241660#0 156241660#1 156241660#2 156241660#3 156241674#3 156241674#4 156241470 -156241502 156241608#1 177961609#1 1177563656 1177563654"/>
    </vehicle>
    <vehicle id="747478914#5.32" depart="1.18">
        <route edges="747478914#5 1218271275 25715384#0 25715384#1 32041202"/>
    </vehicle>
    <vehicle id="295789573.29" depart="1.19">
        <route edges="295789573 751479821#0 929596688 -929596689#0 765852911#0 765852911#1 765852911#2 765852911#3 -765852911#3 -765852911#2 -765852911#1 -765852911#0 929596689#0 929596689#1 -929596689#1 -929596688 751479821#1 151682713 138367146"/>
    </vehicle>
    <vehicle id="747478914#5.33" depart="1.22">
        <route edges="747478914#5 1218271275 154774046"/>
    </vehicle>
    <vehicle id="295789573.30" depart="1.23">
        <route edges="295789573 751479821#0 751479821#1 154773966#0 154773966#1 154773966#2 154773966#3 154773966#4 154773966#5 680334440 -680334440 154773966#6 1258915852 -1258915852 154773966#7 -1046912343 -730920873 -707628055 306379729#0 306379729#1 306379729#2 306379729#3 306379729#4 -306379729#4 -306379729#3 -306379729#2 -306379729#1 -306379729#0 -680475729#5 680475729#5 707628055 730920873 1046912343 730920874#0 730920874#1 730920874#2 730920874#3 730920874#4 730920874#5 730920874#6 730920874#7 852320929 -852320929 730920874#8 730920874#9 730920874#10 -730920874#10 -730920874#9 -730920874#8 -730920874#7 -730920874#6 -730920874#5 -730920874#4 -730920874#3 -730920874#2 -730920874#1 -730920874#0"/>
    </vehicle>
    <vehicle id="747478914#5.34" depart="1.26">
        <route edges="747478914#5 1218271275 25715384#0 25715384#1 32041202"/>
    </vehicle>
    <vehicle id="295789573.31" depart="1.27">
        <route edges="295789573 751479821#0 751479821#1 151682713 138367146"/>
    </vehicle>
    <vehicle id="747478914#5.35" depart="1.30">
        <route edges="747478914#5 1218271275 29503481#0 29503481#1 29503481#2 29503481#3 29503481#4 29503481#5"/>
    </vehicle>
    <vehicle id="295789573.32" depart="1.31">
        <route edges="295789573 751479821#0 929596688 -929596688 751479821#1 151682713 138367146"/>
    </vehicle>
    <vehicle id="747478914#5.36" depart="1.33">
        <route edges="747478914#5 1218271275 25715384#0 25715384#1 32041202"/>
    </vehicle>
    <vehicle id="295789573.33" depart="1.35">
        <route edges="295789573 751479821#0 751479821#1 151682713 138367146"/>
    </vehicle>
    <vehicle id="747478914#5.37" depart="1.37">
        <route edges="747478914#5 1218271275 25715384#0 25715384#1 32041202"/>
    </vehicle>
    <vehicle id="295789573.34" depart="1.39">
        <route edges="295789573 751479821#0 751479821#1 151682713 138367146"/>
    </vehicle>
    <vehicle id="747478914#5.38" depart="1.41">
        <route edges="747478914#5 1218271275 25715384#0 25715384#1 32041202"/>
    </vehicle>
    <vehicle id="295789573.35" depart="1.44">
        <route edges="295789573 751479821#0 929596688 929596689#1 -929596689#1 -929596689#0 -765852912 765852912 765852911#0 765852911#1 765852911#2 765852911#3 -765852911#3 -765852911#2 -765852911#1 -765852911#0 929596689#0 -929596688 751479821#1 154773966#0 154773966#1 154773966#2 154773966#3 154773966#4 154773966#5 154773966#6 154773966#7 -1046912343 -730920873 -707628055 156261352#0 156261352#1 -156241674#5 156241674#5 40005694 1024938014 1024938013#0 1024938013#1 1136400026 177961597#0 177961597#1 177961597#2 747478915#0 39723623#0 39723623#1 630826201 -630826201 39723623#2 39723623#3 -39723623#3 -39723623#2 -39723623#1 -39723623#0 747478915#1"/>
    </vehicle>
    <vehicle id="747478914#5.39" depart="1.44">
        <route edges="747478914#5 1218271275 29503481#0 29503481#1 29503481#2 29503481#3 39727774#0 39727774#1 -39727774#1 39727775 -1018494960#1 -1018494960#0 1018494960#0 720154161 -720154161 1018494960#1 -39727775 -39727774#0 29503481#4 29503481#5"/>
    </vehicle>
    <vehicle id="295789573.36" depart="1.48">
        <route edges="295789573 751479821#0 751479821#1 154773966#0 154773966#1 154773966#2 154773966#3 649819510 -649819510 154773966#4 154773966#5 680334440 -680334440 154773966#6 154773966#7 -1046912343 -730920873 -707628055 707628055 730920873 1046912343 730920874#0 730920874#1 730920874#2 730920874#3 976736696 -976736696 -730920874#3 -730920874#2 -680369587 680369587 -730920874#1 -730920874#0"/>
    </vehicle>
    <vehicle id="747478914#5.40" depart="1.48">
        <route edges="747478914#5 1218271275 25715384#0 25715384#1 32041202"/>
    </vehicle>
    <vehicle id="295789573.37" depart="1.52">
        <route edges="295789573 751479821#0 929596688 -929596688 751479821#1 154773966#0 154773966#1 154773966#2 154773966#3 154773966#4 154773966#5 680334440 -680334440 154773966#6 1258915852 -1258915852 154773966#7 730920874#0 730920874#1 -680369587 680369587 730920874#2 730920874#3 976736696 -976736696 730920874#4 730920874#5 730920874#6 730920874#7 852320929 -852320929 730920874#8 730920874#9 730920874#10 -730920874#10 -730920874#9 -730920874#8 -730920874#7 -730920874#6 -730920874#5 -730920874#4 -730920874#3 -730920874#2 -730920874#1 -730920874#0 -1046912343 -730920873 -707628055 -680475729#5 680475729#5 707628055 730920873 1046912343"/>
    </vehicle>
    <vehicle id="747478914#5.41" depart="1.52">
        <route edges="747478914#5 1218271275 154774046"/>
    </vehicle>
    <vehicle id="747478914#5.42" depart="1.55">
        <route edges="747478914#5 1218271275 25715384#0 25715384#1 32041202"/>
    </vehicle>
    <vehicle id="295789573.38" depart="1.56">
        <route edges="295789573 751479821#0 751479821#1 151682713 138367146"/>
    </vehicle>
    <vehicle id="747478914#5.43" depart="1.59">
        <route edges="747478914#5 1218271275 154774046"/>
    </vehicle>
    <vehicle id="295789573.39" depart="1.60">
        <route edges="295789573 751479821#0 929596688 -929596688 751479821#1 151682713 138367146"/>
    </vehicle>
    <vehicle id="747478914#5.44" depart="1.63">
        <route edges="747478914#5 1218271275 25715384#0 25715384#1 32041202"/>
    </vehicle>
    <vehicle id="295789573.40" depart="1.64">
        <route edges="295789573 751479821#0 751479821#1 154773966#0 154773966#1 154773966#2 154773966#3 154773966#4 154773966#5 154773966#6 1258915852 -1258915852 154773966#7 730920874#0 730920874#1 730920874#2 730920874#3 976736696 -976736696 -730920874#3 -730920874#2 -680369587 680369587 -730920874#1 -730920874#0 -1046912343 -730920873 -707628055 156261352#0 156261352#1 -156241674#5 156241470 -156241502 -156241608#0 156241674#2 156241674#3 156241674#4 156241674#5 40005694 1024938014 1024938013#0 1024938013#1 1136400026 177961597#0 177961597#1 177961597#2 -546023201#1 -546023201#0 177961599#0 177961599#1 177961599#2 39943703#5 39943703#6 39943703#7 39943703#8 39943703#9 289494463#0 289494463#1 156241637#0 156241637#1 156241637#2 156241637#3 156241637#4 156241637#5 156241637#6 156241637#7 156241637#8"/>
    </vehicle>
    <vehicle id="747478914#5.45" depart="1.67">
        <route edges="747478914#5 1218271275 154774046"/>
    </vehicle>
    <vehicle id="295789573.41" depart="1.68">