<?xml version="1.0" encoding="UTF-8"?>

<!-- generated on 2024-10-08 08:36:54 by Eclipse SUMO netconvert Version 1.20.0
<configuration xmlns:xsi="http://www.w3.org/2001/XMLSchema-instance" xsi:noNamespaceSchemaLocation="http://sumo.dlr.de/xsd/netconvertConfiguration.xsd">

    <input>
        <osm-files value="map.osm"/>
    </input>

    <output>
        <output-file value="suthartonnetwork.net.xml"/>
    </output>

    <projection>
        <proj.utm value="true"/>
    </projection>

    <tls_building>
        <tls.guess value="true"/>
    </tls_building>

</configuration>
-->

<net version="1.20" junctionCornerDetail="5" limitTurnSpeed="5.50" xmlns:xsi="http://www.w3.org/2001/XMLSchema-instance" xsi:noNamespaceSchemaLocation="http://sumo.dlr.de/xsd/net_file.xsd">

    <location netOffset="-657631.44,-1516019.35" convBoundary="0.00,0.00,8848.27,3613.58" origBoundary="100.457790,13.708637,100.539737,13.741172" projParameter="+proj=utm +zone=47 +ellps=WGS84 +datum=WGS84 +units=m +no_defs"/>

    <type id="highway.footway" priority="1" numLanes="1" speed="2.78" allow="pedestrian" oneway="1" width="2.00"/>
    <type id="highway.motorway" priority="14" numLanes="2" speed="39.44" allow="private emergency authority army vip passenger hov taxi bus coach delivery truck trailer motorcycle evehicle custom1 custom2" oneway="1"/>
    <type id="highway.motorway_link" priority="9" numLanes="1" speed="22.22" allow="private emergency authority army vip passenger hov taxi bus coach delivery truck trailer motorcycle evehicle custom1 custom2" oneway="1"/>
    <type id="highway.path" priority="1" numLanes="1" speed="5.56" allow="pedestrian bicycle" oneway="0" width="2.00"/>
    <type id="highway.primary" priority="12" numLanes="2" speed="27.78" disallow="tram rail_urban rail rail_electric rail_fast ship container cable_car subway aircraft wheelchair scooter drone" oneway="0"/>
    <type id="highway.primary_link" priority="7" numLanes="1" speed="22.22" disallow="tram rail_urban rail rail_electric rail_fast ship container cable_car subway aircraft wheelchair scooter drone" oneway="0"/>
    <type id="highway.residential" priority="3" numLanes="1" speed="13.89" disallow="tram rail_urban rail rail_electric rail_fast ship container cable_car subway aircraft wheelchair scooter drone" oneway="0"/>
    <type id="highway.secondary" priority="11" numLanes="1" speed="27.78" disallow="tram rail_urban rail rail_electric rail_fast ship container cable_car subway aircraft wheelchair scooter drone" oneway="0"/>
    <type id="highway.service" priority="1" numLanes="1" speed="5.56" allow="pedestrian delivery bicycle" oneway="0"/>
    <type id="highway.steps" priority="1" numLanes="1" speed="1.39" allow="pedestrian" oneway="1" width="2.00"/>
    <type id="highway.tertiary" priority="10" numLanes="1" speed="22.22" disallow="tram rail_urban rail rail_electric rail_fast ship container cable_car subway aircraft wheelchair scooter drone" oneway="0"/>
    <type id="highway.tertiary_link" priority="5" numLanes="1" speed="22.22" disallow="tram rail_urban rail rail_electric rail_fast ship container cable_car subway aircraft wheelchair scooter drone" oneway="0"/>
    <type id="highway.unclassified" priority="4" numLanes="1" speed="13.89" disallow="tram rail_urban rail rail_electric rail_fast ship container cable_car subway aircraft wheelchair scooter drone" oneway="0"/>
    <type id="railway.subway" priority="18" numLanes="1" speed="27.78" allow="subway" oneway="1"/>

    <edge id=":10017534771_0" function="internal">
        <lane id=":10017534771_0_0" index="0" disallow="tram rail_urban rail rail_electric rail_fast ship container cable_car subway aircraft wheelchair scooter drone" speed="13.89" length="7.46" shape="6187.90,1120.02 6180.67,1121.87"/>
    </edge>
    <edge id=":10017534771_1" function="internal">
        <lane id=":10017534771_1_0" index="0" disallow="tram rail_urban rail rail_electric rail_fast ship container cable_car subway aircraft wheelchair scooter drone" speed="13.89" length="7.47" shape="6179.87,1118.77 6187.11,1116.92"/>
    </edge>
    <edge id=":10660349893_0" function="internal">
        <lane id=":10660349893_0_0" index="0" allow="pedestrian delivery bicycle" speed="3.95" length="2.77" shape="6683.62,1261.30 6684.05,1261.13 6684.04,1260.51 6683.88,1259.67 6683.82,1258.84"/>
        <lane id=":10660349893_0_1" index="1" allow="pedestrian delivery bicycle" speed="4.77" length="4.54" shape="6683.62,1261.30 6684.97,1261.38 6685.98,1261.06 6686.66,1260.36 6687.00,1259.26"/>
    </edge>
    <edge id=":10660349893_2" function="internal">
        <lane id=":10660349893_2_0" index="0" allow="pedestrian delivery bicycle" speed="3.65" length="4.67" shape="6683.62,1261.30 6684.66,1262.30 6684.92,1263.16 6684.38,1263.88 6683.06,1264.45"/>
    </edge>
    <edge id=":10660349893_3" function="internal">
        <lane id=":10660349893_3_0" index="0" allow="pedestrian delivery bicycle" speed="4.32" length="3.24" shape="6682.75,1267.44 6682.99,1266.58 6683.32,1265.64 6683.44,1264.85 6683.06,1264.45"/>
    </edge>
    <edge id=":10660349893_4" function="internal">
        <lane id=":10660349893_4_0" index="0" disallow="tram rail_urban rail rail_electric rail_fast ship container cable_car subway aircraft wheelchair scooter drone" speed="22.22" length="8.61" shape="6682.75,1267.44 6683.82,1258.84"/>
        <lane id=":10660349893_4_1" index="1" disallow="tram rail_urban rail rail_electric rail_fast ship container cable_car subway aircraft wheelchair scooter drone" speed="22.22" length="8.61" shape="6685.93,1267.82 6687.00,1259.26"/>
        <lane id=":10660349893_4_2" index="2" disallow="tram rail_urban rail rail_electric rail_fast ship container cable_car subway aircraft wheelchair scooter drone" speed="22.22" length="8.61" shape="6689.11,1268.19 6690.17,1259.67"/>
        <lane id=":10660349893_4_3" index="3" disallow="tram rail_urban rail rail_electric rail_fast ship container cable_car subway aircraft wheelchair scooter drone" speed="22.22" length="8.61" shape="6692.29,1268.57 6693.34,1260.09"/>
    </edge>
    <edge id=":10803594715_0" function="internal">
        <lane id=":10803594715_0_0" index="0" disallow="tram rail_urban rail rail_electric rail_fast ship container cable_car subway aircraft wheelchair scooter drone" speed="6.00" length="7.42" shape="6611.21,1168.92 6611.50,1166.89 6611.09,1165.25 6609.98,1164.00 6608.16,1163.14"/>
    </edge>
    <edge id=":10803594715_1" function="internal">
        <lane id=":10803594715_1_0" index="0" disallow="tram rail_urban rail rail_electric rail_fast ship container cable_car subway aircraft wheelchair scooter drone" speed="22.22" length="7.80" shape="6611.21,1168.92 6613.43,1161.42"/>
        <lane id=":10803594715_1_1" index="1" disallow="tram rail_urban rail rail_electric rail_fast ship container cable_car subway aircraft wheelchair scooter drone" speed="22.22" length="7.80" shape="6614.29,1169.80 6616.50,1162.34"/>
    </edge>
    <edge id=":10939657167_0" function="internal">
        <lane id=":10939657167_0_0" index="0" disallow="tram rail_urban rail rail_electric rail_fast ship container cable_car subway aircraft wheelchair scooter drone" speed="22.22" length="8.21" shape="6540.97,1387.83 6540.56,1390.21 6540.66,1391.90 6540.76,1393.59 6540.36,1395.97"/>
        <lane id=":10939657167_0_1" index="1" disallow="tram rail_urban rail rail_electric rail_fast ship container cable_car subway aircraft wheelchair scooter drone" speed="22.22" length="8.21" shape="6537.88,1386.97 6537.48,1389.35 6537.58,1391.04 6537.68,1392.73 6537.28,1395.11"/>
        <lane id=":10939657167_0_2" index="2" disallow="tram rail_urban rail rail_electric rail_fast ship container cable_car subway aircraft wheelchair scooter drone" speed="22.22" length="8.21" shape="6534.80,1386.12 6534.40,1388.49 6534.50,1390.18 6534.60,1391.87 6534.20,1394.25"/>
        <lane id=":10939657167_0_3" index="3" disallow="tram rail_urban rail rail_electric rail_fast ship container cable_car subway aircraft wheelchair scooter drone" speed="22.22" length="8.21" shape="6534.80,1386.12 6533.92,1388.36 6532.96,1389.75 6532.00,1391.15 6531.11,1393.39"/>
    </edge>
    <edge id=":10991410606_0" function="internal">
        <lane id=":10991410606_0_0" index="0" allow="pedestrian delivery bicycle" speed="3.65" length="4.67" shape="6614.06,1006.93 6615.10,1005.93 6615.97,1005.71 6616.66,1006.27 6617.19,1007.62"/>
    </edge>
    <edge id=":11031460892_0" function="internal">
        <lane id=":11031460892_0_0" index="0" disallow="tram rail_urban rail rail_electric rail_fast ship container cable_car subway aircraft wheelchair scooter drone" speed="27.78" length="2.82" shape="6704.70,1130.37 6704.46,1127.56"/>
    </edge>
    <edge id=":11031460893_0" function="internal">
        <lane id=":11031460893_0_0" index="0" disallow="tram rail_urban rail rail_electric rail_fast ship container cable_car subway aircraft wheelchair scooter drone" speed="27.78" length="2.74" shape="6703.70,1118.60 6703.46,1115.87"/>
    </edge>
    <edge id=":11031460894_0" function="internal">
        <lane id=":11031460894_0_0" index="0" disallow="tram rail_urban rail rail_electric rail_fast ship container cable_car subway aircraft wheelchair scooter drone" speed="27.78" length="2.50" shape="6716.29,1119.77 6714.87,1121.83"/>
    </edge>
    <edge id=":11031460895_0" function="internal">
        <lane id=":11031460895_0_0" index="0" disallow="tram rail_urban rail rail_electric rail_fast ship container cable_car subway aircraft wheelchair scooter drone" speed="27.78" length="2.85" shape="6709.79,1129.17 6708.18,1131.51"/>
    </edge>
    <edge id=":1122114474_0" function="internal">
        <lane id=":1122114474_0_0" index="0" disallow="tram rail_urban rail rail_electric rail_fast ship container cable_car subway aircraft wheelchair scooter drone" speed="6.38" length="8.75" shape="6690.56,1329.16 6688.23,1328.55 6686.67,1327.34 6685.88,1325.54 6685.85,1323.13"/>
    </edge>
    <edge id=":1122114474_1" function="internal">
        <lane id=":1122114474_1_0" index="0" disallow="tram rail_urban rail rail_electric rail_fast ship container cable_car subway aircraft wheelchair scooter drone" speed="6.65" length="9.15" shape="6670.14,1327.10 6672.57,1326.95 6674.41,1326.03 6675.67,1324.34 6676.33,1321.88"/>
    </edge>
    <edge id=":1122114474_2" function="internal">
        <lane id=":1122114474_2_0" index="0" disallow="tram rail_urban rail rail_electric rail_fast ship container cable_car subway aircraft wheelchair scooter drone" speed="22.22" length="11.15" shape="6674.95,1333.01 6676.33,1321.88"/>
        <lane id=":1122114474_2_1" index="1" disallow="tram rail_urban rail rail_electric rail_fast ship container cable_car subway aircraft wheelchair scooter drone" speed="22.22" length="11.15" shape="6678.13,1333.38 6679.51,1322.30"/>
        <lane id=":1122114474_2_2" index="2" disallow="tram rail_urban rail rail_electric rail_fast ship container cable_car subway aircraft wheelchair scooter drone" speed="22.22" length="11.15" shape="6681.31,1333.75 6682.68,1322.72"/>
        <lane id=":1122114474_2_3" index="3" disallow="tram rail_urban rail rail_electric rail_fast ship container cable_car subway aircraft wheelchair scooter drone" speed="22.22" length="11.15" shape="6684.49,1334.13 6685.85,1323.13"/>
    </edge>
    <edge id=":1122114496_0" function="internal">
        <lane id=":1122114496_0_0" index="0" allow="pedestrian delivery bicycle" speed="4.69" length="4.50" width="2.00" shape="6979.76,1364.57 6979.12,1364.65 6978.55,1365.27 6978.08,1366.44 6977.69,1368.14"/>
    </edge>
    <edge id=":1122114496_1" function="internal">
        <lane id=":1122114496_1_0" index="0" allow="pedestrian delivery bicycle" speed="9.72" length="8.69" shape="6979.76,1364.57 6977.34,1363.70 6975.75,1362.86 6974.13,1362.14 6971.63,1361.64"/>
    </edge>
    <edge id=":1122114496_2" function="internal">
        <lane id=":1122114496_2_0" index="0" allow="pedestrian delivery bicycle" speed="6.67" length="8.81" width="2.00" shape="6979.76,1364.57 6978.39,1363.74 6977.57,1362.16 6977.32,1359.83 6977.64,1356.76"/>
    </edge>
    <edge id=":1122114496_3" function="internal">
        <lane id=":1122114496_3_0" index="0" allow="pedestrian delivery bicycle" speed="3.65" length="4.67" shape="6979.76,1364.57 6978.82,1363.48 6978.65,1362.60 6979.24,1361.94 6980.61,1361.48"/>
    </edge>
    <edge id=":1122114496_4" function="internal">
        <lane id=":1122114496_4_0" index="0" allow="pedestrian delivery bicycle" speed="4.99" length="4.86" shape="6979.61,1357.10 6979.42,1358.84 6979.52,1360.15 6979.92,1361.04 6980.61,1361.48"/>
    </edge>
    <edge id=":1122114496_5" function="internal">
        <lane id=":1122114496_5_0" index="0" disallow="tram rail_urban rail rail_electric rail_fast ship container cable_car subway aircraft wheelchair scooter drone" speed="13.89" length="11.21" width="2.00" shape="6979.61,1357.10 6977.69,1368.14"/>
    </edge>
    <edge id=":1122114496_6" function="internal">
        <lane id=":1122114496_6_0" index="0" disallow="tram rail_urban rail rail_electric rail_fast ship container cable_car subway aircraft wheelchair scooter drone" speed="6.92" length="0.64" shape="6979.61,1357.10 6979.39,1357.69"/>
    </edge>
    <edge id=":1122114496_7" function="internal">
        <lane id=":1122114496_7_0" index="0" disallow="tram rail_urban rail rail_electric rail_fast ship container cable_car subway aircraft wheelchair scooter drone" speed="2.89" length="2.39" width="2.00" shape="6979.61,1357.10 6978.99,1357.75 6978.45,1357.91 6978.00,1357.58 6977.85,1357.24"/>
    </edge>
    <edge id=":1122114496_12" function="internal">
        <lane id=":1122114496_12_0" index="0" disallow="tram rail_urban rail rail_electric rail_fast ship container cable_car subway aircraft wheelchair scooter drone" speed="6.92" length="9.66" shape="6979.39,1357.69 6978.76,1359.39 6977.15,1360.91 6974.78,1361.66 6971.63,1361.64"/>
    </edge>
    <edge id=":1122114496_13" function="internal">
        <lane id=":1122114496_13_0" index="0" disallow="tram rail_urban rail rail_electric rail_fast ship container cable_car subway aircraft wheelchair scooter drone" speed="2.89" length="0.53" width="2.00" shape="6977.85,1357.24 6977.64,1356.76"/>
    </edge>
    <edge id=":1122114496_8" function="internal">
        <lane id=":1122114496_8_0" index="0" disallow="tram rail_urban rail rail_electric rail_fast ship container cable_car subway aircraft wheelchair scooter drone" speed="6.09" length="8.54" shape="6975.72,1367.80 6975.83,1365.32 6975.19,1363.47 6973.79,1362.24 6971.63,1361.64"/>
    </edge>
    <edge id=":1122114496_9" function="internal">
        <lane id=":1122114496_9_0" index="0" disallow="tram rail_urban rail rail_electric rail_fast ship container cable_car subway aircraft wheelchair scooter drone" speed="13.89" length="11.21" width="2.00" shape="6975.72,1367.80 6977.64,1356.76"/>
    </edge>
    <edge id=":1122114496_10" function="internal">
        <lane id=":1122114496_10_0" index="0" allow="pedestrian delivery bicycle" speed="5.99" length="1.39" shape="6975.72,1367.80 6976.15,1366.48"/>
    </edge>
    <edge id=":1122114496_11" function="internal">
        <lane id=":1122114496_11_0" index="0" disallow="tram rail_urban rail rail_electric rail_fast ship container cable_car subway aircraft wheelchair scooter drone" speed="2.89" length="2.38" width="2.00" shape="6975.72,1367.80 6976.34,1367.15 6976.88,1366.99 6977.32,1367.32 6977.47,1367.65"/>
    </edge>
    <edge id=":1122114496_14" function="internal">
        <lane id=":1122114496_14_0" index="0" allow="pedestrian delivery bicycle" speed="5.99" length="7.07" shape="6976.15,1366.48 6976.42,1365.64 6977.66,1363.47 6979.15,1361.89 6980.61,1361.48"/>
    </edge>
    <edge id=":1122114496_15" function="internal">
        <lane id=":1122114496_15_0" index="0" disallow="tram rail_urban rail rail_electric rail_fast ship container cable_car subway aircraft wheelchair scooter drone" speed="2.89" length="0.54" width="2.00" shape="6977.47,1367.65 6977.69,1368.14"/>
    </edge>
    <edge id=":11244279186_0" function="internal">
        <lane id=":11244279186_0_0" index="0" disallow="tram rail_urban rail rail_electric rail_fast ship container cable_car subway aircraft wheelchair scooter drone" speed="2.89" length="2.92" width="2.00" shape="6914.90,1700.64 6914.25,1701.26 6913.71,1701.40 6913.27,1701.05 6912.94,1700.21"/>
    </edge>
    <edge id=":11258009143_0" function="internal">
        <lane id=":11258009143_0_0" index="0" disallow="tram rail_urban rail rail_electric rail_fast ship container cable_car subway aircraft wheelchair scooter drone" speed="3.65" length="4.67" shape="6817.56,1434.17 6816.60,1435.24 6815.75,1435.52 6815.01,1435.01 6814.39,1433.71"/>
    </edge>
    <edge id=":11258009215_0" function="internal">
        <lane id=":11258009215_0_0" index="0" allow="pedestrian delivery bicycle" speed="3.65" length="4.67" shape="6724.81,1415.36 6725.13,1416.76 6724.87,1417.62 6724.03,1417.92 6722.61,1417.68"/>
    </edge>
    <edge id=":11258048062_0" function="internal">
        <lane id=":11258048062_0_0" index="0" allow="pedestrian delivery bicycle" speed="5.56" length="2.32" shape="6678.46,1409.46 6676.16,1409.20"/>
    </edge>
    <edge id=":11258048062_1" function="internal">
        <lane id=":11258048062_1_0" index="0" allow="pedestrian delivery bicycle" speed="3.65" length="1.44" shape="6678.46,1409.46 6677.36,1408.53"/>
    </edge>
    <edge id=":11258048062_4" function="internal">
        <lane id=":11258048062_4_0" index="0" allow="pedestrian delivery bicycle" speed="3.65" length="3.23" shape="6677.36,1408.53 6677.05,1407.69 6677.54,1406.94 6678.82,1406.28"/>
    </edge>
    <edge id=":11258048062_2" function="internal">
        <lane id=":11258048062_2_0" index="0" allow="pedestrian delivery bicycle" speed="5.56" length="2.32" shape="6676.52,1406.02 6678.82,1406.28"/>
    </edge>
    <edge id=":11258048062_3" function="internal">
        <lane id=":11258048062_3_0" index="0" allow="pedestrian delivery bicycle" speed="3.65" length="1.44" shape="6676.52,1406.02 6677.62,1406.95"/>
    </edge>
    <edge id=":11258048062_5" function="internal">
        <lane id=":11258048062_5_0" index="0" allow="pedestrian delivery bicycle" speed="3.65" length="3.23" shape="6677.62,1406.95 6677.93,1407.79 6677.44,1408.54 6676.16,1409.20"/>
    </edge>
    <edge id=":11258048065_0" function="internal">
        <lane id=":11258048065_0_0" index="0" disallow="tram rail_urban rail rail_electric rail_fast ship container cable_car subway aircraft wheelchair scooter drone" speed="22.22" length="0.29" shape="6641.47,1590.88 6641.51,1590.50"/>
        <lane id=":11258048065_0_1" index="1" disallow="tram rail_urban rail rail_electric rail_fast ship container cable_car subway aircraft wheelchair scooter drone" speed="22.22" length="0.29" shape="6644.64,1591.26 6644.68,1590.94"/>
        <lane id=":11258048065_0_2" index="2" disallow="tram rail_urban rail rail_electric rail_fast ship container cable_car subway aircraft wheelchair scooter drone" speed="22.22" length="0.29" shape="6647.82,1591.64 6647.85,1591.38"/>
        <lane id=":11258048065_0_3" index="3" disallow="tram rail_urban rail rail_electric rail_fast ship container cable_car subway aircraft wheelchair scooter drone" speed="22.22" length="0.29" shape="6651.00,1592.01 6651.02,1591.82"/>
    </edge>
    <edge id=":11393909347_0" function="internal">
        <lane id=":11393909347_0_0" index="0" disallow="tram rail_urban rail rail_electric rail_fast ship container cable_car subway aircraft wheelchair scooter drone" speed="8.33" length="6.21" shape="6587.22,1410.31 6586.31,1416.45"/>
        <lane id=":11393909347_0_1" index="1" disallow="tram rail_urban rail rail_electric rail_fast ship container cable_car subway aircraft wheelchair scooter drone" speed="8.33" length="6.21" shape="6584.05,1409.84 6583.14,1415.98"/>
    </edge>
    <edge id=":11393909347_2" function="internal">
        <lane id=":11393909347_2_0" index="0" allow="pedestrian delivery bicycle" speed="5.22" length="5.11" shape="6584.05,1409.84 6583.66,1411.12 6582.92,1412.00 6581.83,1412.48 6580.39,1412.57"/>
    </edge>
    <edge id=":11393909353_0" function="internal">
        <lane id=":11393909353_0_0" index="0" allow="pedestrian delivery bicycle" speed="5.04" length="5.00" shape="6559.87,1389.32 6559.74,1390.68 6560.08,1391.76 6560.89,1392.55 6562.16,1393.06"/>
    </edge>
    <edge id=":11393909353_1" function="internal">
        <lane id=":11393909353_1_0" index="0" allow="pedestrian delivery bicycle" speed="3.65" length="4.67" shape="6559.87,1389.32 6558.81,1390.30 6557.94,1390.51 6557.25,1389.93 6556.75,1388.58"/>
    </edge>
    <edge id=":11393909353_2" function="internal">
        <lane id=":11393909353_2_0" index="0" allow="pedestrian delivery bicycle" speed="5.56" length="6.50" shape="6556.91,1395.01 6557.08,1393.12 6556.82,1391.79 6556.56,1390.46 6556.75,1388.58"/>
    </edge>
    <edge id=":11393909353_3" function="internal">
        <lane id=":11393909353_3_0" index="0" allow="pedestrian delivery bicycle" speed="5.55" length="6.34" shape="6556.91,1395.01 6557.49,1393.74 6558.56,1393.00 6560.12,1392.77 6562.16,1393.06"/>
    </edge>
    <edge id=":11393909354_0" function="internal">
        <lane id=":11393909354_0_0" index="0" allow="pedestrian delivery bicycle" speed="3.65" length="4.67" shape="6560.87,1371.31 6561.92,1370.33 6562.80,1370.13 6563.48,1370.70 6563.98,1372.05"/>
    </edge>
    <edge id=":11393909355_0" function="internal">
        <lane id=":11393909355_0_0" index="0" disallow="tram rail_urban rail rail_electric rail_fast ship container cable_car subway aircraft wheelchair scooter drone" speed="8.33" length="6.21" shape="6589.35,1395.93 6588.44,1402.08"/>
        <lane id=":11393909355_0_1" index="1" disallow="tram rail_urban rail rail_electric rail_fast ship container cable_car subway aircraft wheelchair scooter drone" speed="8.33" length="6.21" shape="6586.18,1395.46 6585.27,1401.61"/>
    </edge>
    <edge id=":11393909355_2" function="internal">
        <lane id=":11393909355_2_0" index="0" allow="pedestrian delivery bicycle" speed="5.24" length="5.13" shape="6582.55,1397.92 6583.90,1398.43 6584.81,1399.22 6585.26,1400.28 6585.27,1401.61"/>
    </edge>
    <edge id=":11393909375_0" function="internal">
        <lane id=":11393909375_0_0" index="0" disallow="tram rail_urban rail rail_electric rail_fast ship container cable_car subway aircraft wheelchair scooter drone" speed="8.33" length="4.61" shape="6590.58,1387.61 6589.90,1392.18"/>
        <lane id=":11393909375_0_1" index="1" disallow="tram rail_urban rail rail_electric rail_fast ship container cable_car subway aircraft wheelchair scooter drone" speed="8.33" length="4.61" shape="6587.41,1387.15 6586.74,1391.71"/>
    </edge>
    <edge id=":11393909389_0" function="internal">
        <lane id=":11393909389_0_0" index="0" allow="pedestrian delivery bicycle" speed="3.65" length="4.67" shape="6584.04,1359.02 6583.14,1360.14 6582.31,1360.47 6581.54,1360.00 6580.86,1358.73"/>
    </edge>
    <edge id=":11393909393_0" function="internal">
        <lane id=":11393909393_0_0" index="0" disallow="tram rail_urban rail rail_electric rail_fast ship container cable_car subway aircraft wheelchair scooter drone" speed="8.33" length="8.12" shape="6596.49,1348.36 6595.28,1356.39"/>
        <lane id=":11393909393_0_1" index="1" disallow="tram rail_urban rail rail_electric rail_fast ship container cable_car subway aircraft wheelchair scooter drone" speed="8.33" length="8.12" shape="6593.32,1347.89 6592.11,1355.91"/>
    </edge>
    <edge id=":11393909393_2" function="internal">
        <lane id=":11393909393_2_0" index="0" allow="pedestrian delivery bicycle" speed="5.90" length="6.74" shape="6593.32,1347.89 6592.80,1349.98 6591.97,1351.44 6590.83,1352.28 6589.36,1352.50"/>
    </edge>
    <edge id=":11393909393_3" function="internal">
        <lane id=":11393909393_3_0" index="0" allow="pedestrian delivery bicycle" speed="5.99" length="8.00" shape="6589.58,1349.31 6591.05,1349.80 6591.96,1351.06 6592.32,1353.10 6592.11,1355.91"/>
    </edge>
    <edge id=":11393909393_4" function="internal">
        <lane id=":11393909393_4_0" index="0" allow="pedestrian delivery bicycle" speed="3.65" length="4.67" shape="6589.58,1349.31 6590.72,1350.18 6591.07,1351.01 6590.62,1351.78 6589.36,1352.50"/>
    </edge>
    <edge id=":11393909399_0" function="internal">
        <lane id=":11393909399_0_0" index="0" allow="pedestrian delivery bicycle" speed="3.65" length="4.67" shape="6579.14,1344.52 6578.02,1343.61 6577.69,1342.78 6578.16,1342.02 6579.43,1341.33"/>
    </edge>
    <edge id=":11393909400_0" function="internal">
        <lane id=":11393909400_0_0" index="0" disallow="tram rail_urban rail rail_electric rail_fast ship container cable_car subway aircraft wheelchair scooter drone" speed="8.33" length="8.12" shape="6597.73,1340.14 6596.52,1348.16"/>
        <lane id=":11393909400_0_1" index="1" disallow="tram rail_urban rail rail_electric rail_fast ship container cable_car subway aircraft wheelchair scooter drone" speed="8.33" length="8.12" shape="6594.57,1339.66 6593.35,1347.69"/>
    </edge>
    <edge id=":11393909400_2" function="internal">
        <lane id=":11393909400_2_0" index="0" allow="pedestrian delivery bicycle" speed="6.27" length="7.92" shape="6594.57,1339.66 6593.96,1342.34 6593.06,1344.22 6591.87,1345.29 6590.40,1345.54"/>
    </edge>
    <edge id=":11393909400_3" function="internal">
        <lane id=":11393909400_3_0" index="0" allow="pedestrian delivery bicycle" speed="5.66" length="6.88" shape="6590.58,1342.35 6592.08,1342.80 6593.04,1343.84 6593.46,1345.47 6593.35,1347.69"/>
    </edge>
    <edge id=":11393909400_4" function="internal">
        <lane id=":11393909400_4_0" index="0" allow="pedestrian delivery bicycle" speed="3.65" length="4.68" shape="6590.58,1342.35 6591.74,1343.22 6592.09,1344.04 6591.64,1344.81 6590.40,1345.54"/>
    </edge>
    <edge id=":11393968552_0" function="internal">
        <lane id=":11393968552_0_0" index="0" allow="pedestrian delivery bicycle" speed="13.89" length="0.38" shape="6684.68,1253.18 6684.73,1253.17 6684.70,1253.09 6684.65,1252.99 6684.63,1252.86"/>
        <lane id=":11393968552_0_1" index="1" allow="pedestrian delivery bicycle" speed="4.28" length="3.37" shape="6684.68,1253.18 6685.56,1253.41 6686.55,1253.69 6687.39,1253.74 6687.80,1253.32"/>
    </edge>
    <edge id=":11393968552_2" function="internal">
        <lane id=":11393968552_2_0" index="0" allow="pedestrian delivery bicycle" speed="3.65" length="4.67" shape="6684.68,1253.18 6685.73,1254.17 6685.99,1255.03 6685.46,1255.75 6684.14,1256.34"/>
    </edge>
    <edge id=":11393968552_3" function="internal">
        <lane id=":11393968552_3_0" index="0" allow="pedestrian delivery bicycle" speed="3.97" length="2.62" shape="6683.85,1258.64 6684.09,1257.89 6684.41,1257.18 6684.53,1256.63 6684.14,1256.34"/>
    </edge>
    <edge id=":11393968552_4" function="internal">
        <lane id=":11393968552_4_0" index="0" disallow="tram rail_urban rail rail_electric rail_fast ship container cable_car subway aircraft wheelchair scooter drone" speed="22.22" length="5.77" shape="6683.85,1258.64 6684.63,1252.86"/>
        <lane id=":11393968552_4_1" index="1" disallow="tram rail_urban rail rail_electric rail_fast ship container cable_car subway aircraft wheelchair scooter drone" speed="22.22" length="5.77" shape="6687.02,1259.06 6687.80,1253.32"/>
        <lane id=":11393968552_4_2" index="2" disallow="tram rail_urban rail rail_electric rail_fast ship container cable_car subway aircraft wheelchair scooter drone" speed="22.22" length="5.77" shape="6690.20,1259.47 6690.97,1253.77"/>
        <lane id=":11393968552_4_3" index="3" disallow="tram rail_urban rail rail_electric rail_fast ship container cable_car subway aircraft wheelchair scooter drone" speed="22.22" length="5.77" shape="6693.37,1259.89 6694.13,1254.23"/>
    </edge>
    <edge id=":11393968567_0" function="internal">
        <lane id=":11393968567_0_0" index="0" allow="pedestrian delivery bicycle" speed="3.65" length="4.67" shape="6629.61,1229.24 6628.60,1230.28 6627.74,1230.52 6627.03,1229.98 6626.46,1228.66"/>
    </edge>
    <edge id=":11393968568_0" function="internal">
        <lane id=":11393968568_0_0" index="0" allow="pedestrian delivery bicycle" speed="3.65" length="4.67" shape="6661.64,1260.17 6660.63,1259.15 6660.39,1258.29 6660.94,1257.58 6662.28,1257.03"/>
    </edge>
    <edge id=":11393968591_0" function="internal">
        <lane id=":11393968591_0_0" index="0" allow="pedestrian delivery bicycle" speed="4.31" length="3.29" shape="6680.34,1287.95 6680.57,1287.08 6680.90,1286.11 6681.01,1285.31 6680.62,1284.91"/>
    </edge>
    <edge id=":11393968591_1" function="internal">
        <lane id=":11393968591_1_0" index="0" disallow="tram rail_urban rail rail_electric rail_fast ship container cable_car subway aircraft wheelchair scooter drone" speed="22.22" length="6.20" shape="6680.34,1287.95 6681.06,1281.79"/>
        <lane id=":11393968591_1_1" index="1" disallow="tram rail_urban rail rail_electric rail_fast ship container cable_car subway aircraft wheelchair scooter drone" speed="22.22" length="6.20" shape="6683.52,1288.32 6684.24,1282.16"/>
        <lane id=":11393968591_1_2" index="2" disallow="tram rail_urban rail rail_electric rail_fast ship container cable_car subway aircraft wheelchair scooter drone" speed="22.22" length="6.20" shape="6686.70,1288.70 6687.42,1282.54"/>
        <lane id=":11393968591_1_3" index="3" disallow="tram rail_urban rail rail_electric rail_fast ship container cable_car subway aircraft wheelchair scooter drone" speed="22.22" length="6.20" shape="6689.87,1289.07 6690.60,1282.91"/>
    </edge>
    <edge id=":11393968596_0" function="internal">